/*--------------------------------*- C++ -*----------------------------------*\
| =========                 |                                                 |
| \\      /  F ield         | OpenFOAM: The Open Source CFD Toolbox           |
|  \\    /   O peration     | Version:  v2006                                 |
|   \\  /    A nd           | Website:  www.openfoam.com                      |
|    \\/     M anipulation  |                                                 |
\*---------------------------------------------------------------------------*/
FoamFile
{
    version     2.0;
    format      ascii;
    class       dictionary;
    object      createPatchDict;
}

// * * * * * * * * * * * * * * * * * * * * * * * * * * * * * * * * * * * * * //

// This application/dictionary controls:
// - optional: create new patches from boundary faces (either given as
//   a set of patches or as a faceSet)
// - always: order faces on coupled patches such that they are opposite. This
//   is done for all coupled faces, not just for any patches created.
// - optional: synchronise points on coupled patches.

// 1. Create cyclic:
// - specify where the faces should come from
// - specify the type of cyclic. If a rotational specify the rotationAxis
//   and centre to make matching easier
// - always create both halves in one invocation with correct 'neighbourPatch'
//   setting.
// - optionally pointSync true to guarantee points to line up.

// 2. Correct incorrect cyclic:
// This will usually fail upon loading:
//  "face 0 area does not match neighbour 2 by 0.0100005%"
//  " -- possible face ordering problem."
// - in polyMesh/boundary file:
//      - loosen matchTolerance of all cyclics to get case to load
//      - or change patch type from 'cyclic' to 'patch'
//        and regenerate cyclic as above


// Do a synchronisation of coupled points after creation of any patches.
// Note: this does not work with points that are on multiple coupled patches
//       with transformations (i.e. cyclics).
pointSync false;

// Patches to create.
patches
(
    {
        // Name of new patch
        name inlet;
        // Type of new patch
        patchInfo
        {
            type            cyclic;
            neighbourPatch  outlet;
            matchTolerance  10;
        }

        constructFrom patches;
        patches (INLET);  
        set f0;
    }
    {
        // Name of new patch
        name outlet;
        // Type of new patch
        patchInfo
        {
            type            cyclic;
            neighbourPatch  inlet;
            matchTolerance  10;
        }

        constructFrom patches;
        patches (OUTLET);   
        set f0;
    }
    {
        // Name of new patch
        name wall_l;
        // Type of new patch
        patchInfo
        {
            type            cyclic;
            neighbourPatch  wall_r;
            matchTolerance  0.03;
        }

        constructFrom patches;
        patches (WALL_L);  
        set f0;
    }
    {
        // Name of new patch 
        name wall_r;
        // Type of new patch
        patchInfo
        {
            type            cyclic;
            neighbourPatch  wall_l;
            matchTolerance  0.03;
        }

        constructFrom patches;
        patches (WALL_R);   
        set f0;
    }
    
);

// ************************************************************************* //
